Circuit: * E:\Dropbox\Dima\Teaching courses and tutorials\Plymouth City College\1081\Complex Signals\LTspice_for_complex_waveforms\LTspice\Triangle.asc

.OP point found by inspection.

Date: Wed Feb 28 20:22:10 2024
Total elapsed time: 0.508 seconds.

tnom = 27
temp = 27
method = modified trap
totiter = 2082
traniter = 2082
tranpoints = 1042
accept = 1042
rejected = 0
matrix size = 6
fillins = 0
solver = Normal
Matrix Compiler1: 110 bytes object code size  0.0/0.1/[0.0]
Matrix Compiler2: 326 bytes object code size  0.0/0.1/[0.0]

