Circuit: * E:\Dropbox\Dima\Teaching courses and tutorials\Plymouth City College\1081\AC_bridges\Maxwell_bridge.asc

.OP point found by inspection.

Date: Fri May 03 22:26:17 2024
Total elapsed time: 0.251 seconds.

tnom = 27
temp = 27
method = modified trap
totiter = 23064
traniter = 23064
tranpoints = 11533
accept = 9612
rejected = 1921
matrix size = 12
fillins = 0
solver = Normal
Matrix Compiler1: 392 bytes object code size  0.1/0.1/[0.0]
Matrix Compiler2: 778 bytes object code size  0.1/0.1/[0.0]

