Circuit: * E:\Dropbox\Dima\Teaching courses and tutorials\Plymouth City College\1081\Module documents\Solution for coursework\Three-harmonic-signal.asc

Direct Newton iteration for .op point succeeded.

Date: Mon Apr 29 00:01:45 2024
Total elapsed time: 1.582 seconds.

tnom = 27
temp = 27
method = modified trap
totiter = 2869
traniter = 2866
tranpoints = 1434
accept = 1219
rejected = 215
matrix size = 6
fillins = 0
solver = Normal
Matrix Compiler1:       8 opcodes  0.0/[0.0]/0.0
Matrix Compiler2: 320 bytes object code size  0.0/0.1/[0.0]

