Circuit: * E:\Dropbox\Dima\Teaching courses and tutorials\Plymouth City College\1081\Module documents\Solution for coursework\Three-harmonic-signal_2.asc

Direct Newton iteration for .op point succeeded.

Date: Tue May 07 22:51:59 2024
Total elapsed time: 0.119 seconds.

tnom = 27
temp = 27
method = modified trap
totiter = 67771
traniter = 67768
tranpoints = 33885
accept = 21038
rejected = 12847
matrix size = 9
fillins = 0
solver = Normal
Matrix Compiler1: 152 bytes object code size  0.1/0.1/[0.0]
Matrix Compiler2: 523 bytes object code size  0.1/0.1/[0.1]

